LAMMPS (16 Mar 2018)
# REAX potential for high energy CHON systems
# .....

units		real

atom_style	charge
read_data	RDX.data
  orthogonal box = (0 0 0) to (25 25 25)
  reading atoms ...
  105 atoms

pair_style	reax/c lmp_control
pair_coeff	* * ffield.reax.rdx H C O N
Reading potential file ffield.reax.rdx with DATE: 2010-02-19

neighbor	2 bin
neigh_modify	every 10 delay 0 check no

fix		1 all nve
fix             2 all qeq/reax 1 0.0 10.0 1e-6 param.qeq
fix             3 all temp/berendsen 10.0 10.0 100.0
run		1000000
  update every 10 steps, delay 0 steps, check no
Step Temp E_pair E_mol TotEng Press
0            0   -10197.932            0   -10197.932    38.347492
Loop time of 4079.2 on 1 procs for 1000000 steps with 105 atoms

unfix 1
unfix 2
unfix 3

fix             1 all nvt temp 1600 1600 2 drag 0.2
fix             2 all qeq/reax 1 0.0 10.0 1e-6 param.qeq

timestep	0.1

dump		1 all atom 1000 dump.reax.rdx

thermo_style custom step pe ke etotal temp vol press
thermo 1000

run		1000000
  update every 10 steps, delay 0 steps, check no
Step PotEng KinEng TotEng Temp Volume Press
1000000   -10291.567    2.9891109   -10288.578    9.6421613        15625     -512.992
Averages over the last 501 of 1001 rows, steps 1500000 to 2000000:
PotEng KinEng TotEng Temp Volume Press
-9641.22 496.77 -9144.45 1602.46 15625 236.682
Loop time of 2148.13 on 1 procs for 1000000 steps with 105 atoms

Please see the log.cite file for references relevant to this simulation
