LAMMPS (16 Mar 2018)
# REAX potential for high energy CHON systems
# .....

units		real

atom_style	charge
read_data	RDX.data
  orthogonal box = (0 0 0) to (25 25 25)
  reading atoms ...
  21 atoms

pair_style	reax/c lmp_control
pair_coeff	* * ffield.reax.rdx H C O N
Reading potential file ffield.reax.rdx with DATE: 2010-02-19

neighbor	2.5 bin
neigh_modify	every 10 delay 0 check no

fix		1 all nve
fix             2 all qeq/reax 1 0.0 10.0 1e-6 param.qeq
fix             3 all temp/berendsen 10.0 10.0 100.0
run		100000
  update every 10 steps, delay 0 steps, check no
Step Temp E_pair E_mol TotEng Press
0            0   -649.25582            0   -649.25582     3920.871
Loop time of 16.0613 on 1 procs for 100000 steps with 21 atoms

unfix 1
unfix 2
unfix 3

fix             1 all nvt temp 100 2000 2 drag 0.2
fix             2 all qeq/reax 1 0.0 10.0 1e-6 param.qeq

timestep	1

dump		1 all atom 1000 dump.reax.rdx

thermo_style custom step pe ke etotal temp vol press
thermo 1000

run		100000
  update every 10 steps, delay 0 steps, check no
Step PotEng KinEng TotEng Temp Volume Press
100000   -563.07682    90.758295   -472.31852    1522.3764        15625    238.12409
Averages over the last 51 of 101 rows, steps 150000 to 200000:
PotEng KinEng TotEng Temp Volume Press
-1315.23 103.143 -1212.09 1730.12 15625 193.875
Loop time of 18.4573 on 1 procs for 100000 steps with 21 atoms

Please see the log.cite file for references relevant to this simulation
