LAMMPS (16 Mar 2018)
# REAX potential for high energy CHON systems
# .....

units		real

atom_style	charge
read_data	RDX.data
  orthogonal box = (0 0 0) to (25 25 25)
  reading atoms ...
  105 atoms

pair_style	reax/c lmp_control
pair_coeff	* * ffield.reax.rdx H C O N
Reading potential file ffield.reax.rdx with DATE: 2010-02-19

neighbor	2 bin
neigh_modify	every 10 delay 0 check no

#fix		        1 all nvt
#fix             2 all qeq/reax 1 0.0 10.0 1e-6 param.qeq
#fix             3 all temp/berendsen 100.0 500.0 100.0
fix             1 all nvt temp 100 500 2 drag 0.2
fix             2 all qeq/reax 1 0.0 10.0 1e-6 param.qeq

timestep	0.01

dump		1 all atom 30 dump.reax.rdx

thermo_style custom step pe ke etotal temp vol press
thermo 1000

run		100000
  update every 10 steps, delay 0 steps, check no
Step PotEng KinEng TotEng Temp Volume Press
0   -10197.932            0   -10197.932            0        15625    38.347492
Averages over the last 51 of 101 rows, steps 50000 to 100000:
PotEng KinEng TotEng Temp Volume Press
-10116.1 124.7 -9991.44 402.252 15625 119.003
Loop time of 332.005 on 1 procs for 100000 steps with 105 atoms

Please see the log.cite file for references relevant to this simulation
